<?xml version="1.0" encoding="UTF-8"?>
<!DOCTYPE network SYSTEM "http://www.matsim.org/files/dtd/network_v2.dtd">
<network>

<!-- ====================================================================== -->

	<nodes>
		<node id="1024803950" x="415867.7205830113" y="5645531.091487186" >
		</node>
		<node id="1024803951" x="415887.47458227945" y="5645598.96415664" >
		</node>
		<node id="1024803958" x="415854.1714939489" y="5645613.864413384" >
		</node>
		<node id="1024803959" x="415868.0024127171" y="5645619.824019411" >
		</node>
		<node id="1024803979" x="415848.5073788882" y="5645596.883028675" >
		</node>
		<node id="1024803984" x="415865.69531204656" y="5645510.63631693" >
		</node>
		<node id="1024804001" x="415877.3365997114" y="5645583.779405005" >
		</node>
		<node id="1024804020" x="415791.2773441548" y="5645612.684052201" >
		</node>
		<node id="1024804033" x="415860.15548925137" y="5645582.200922681" >
		</node>
		<node id="1024804038" x="415823.300631104" y="5645615.444829876" >
		</node>
		<node id="1024811845" x="415878.19537950616" y="5645616.332801994" >
		</node>
		<node id="1024813431" x="416797.65280548844" y="5645715.936712833" >
		</node>
		<node id="1024813438" x="416815.9009181567" y="5645716.644704218" >
		</node>
		<node id="1024813439" x="416819.6896610425" y="5645711.100389882" >
		</node>
		<node id="1024813441" x="416795.6426046519" y="5645706.247780529" >
		</node>
		<node id="1024815004" x="417951.382993568" y="5645128.2581033325" >
		</node>
		<node id="102621768" x="418956.5732640282" y="5646394.290391582" >
		</node>
		<node id="102622793" x="418663.8386462731" y="5646608.117328711" >
		</node>
		<node id="102622799" x="418682.57512298063" y="5646622.716244511" >
		</node>
		<node id="102623429" x="419262.8683661082" y="5645444.513349109" >
		</node>
		<node id="102623434" x="419249.991978855" y="5645421.123135409" >
		</node>
		<node id="102623435" x="419257.301333273" y="5645415.014171342" >
		</node>
		<node id="102623437" x="419272.0193573766" y="5645416.831362438" >
		</node>
		<node id="102623438" x="419276.6121275138" y="5645422.131983171" >
		</node>
		<node id="102623439" x="419278.0677497441" y="5645432.141826431" >
		</node>
		<node id="102623829" x="419408.26697065285" y="5645166.221913852" >
		</node>
		<node id="102624324" x="419242.1312210279" y="5645512.639520516" >
		</node>
		<node id="1036948647" x="419613.78128240386" y="5642371.375202211" >
		</node>
		<node id="1036948649" x="419822.96127828583" y="5642109.595774706" >
		</node>
		<node id="1036948674" x="419619.79497875506" y="5642039.154388213" >
		</node>
		<node id="1036948690" x="420131.8204942809" y="5642132.2693012655" >
		</node>
		<node id="1036948691" x="419250.94880142144" y="5641936.584370717" >
		</node>
		<node id="1036948698" x="420163.0717303726" y="5642380.518931671" >
		</node>
		<node id="1036948706" x="419666.1498347786" y="5642333.270125804" >
		</node>
		<node id="1036948710" x="419982.5074888297" y="5642235.429055536" >
		</node>
		<node id="1036948711" x="419753.3603720766" y="5642492.995254996" >
		</node>
		<node id="1036948719" x="420437.61892642896" y="5642277.777255051" >
		</node>
		<node id="1036948730" x="420004.33826350607" y="5642166.433496361" >
		</node>
		<node id="1036948744" x="419948.9462356624" y="5642726.591220459" >
		</node>
		<node id="1036948749" x="419648.86315738765" y="5642383.5333696315" >
		</node>
		<node id="1036948751" x="420105.9264752833" y="5642695.952532416" >
		</node>
		<node id="1036948759" x="419472.0958721974" y="5642464.010140418" >
		</node>
		<node id="1036948764" x="420110.73248508316" y="5642201.230586861" >
		</node>
		<node id="1036948768" x="420013.25780716335" y="5642434.813732104" >
		</node>
		<node id="1036948784" x="419692.52217584295" y="5642340.869838723" >
		</node>
		<node id="1036948789" x="419740.6963471748" y="5642363.25876134" >
		</node>
		<node id="1055627279" x="421664.978462364" y="5645178.025709791" >
		</node>
		<node id="1055627293" x="422672.82406505436" y="5645475.524306134" >
		</node>
		<node id="1055627316" x="421127.5375114856" y="5645070.683821276" >
		</node>
		<node id="1055627328" x="422638.57931161014" y="5645497.757499275" >
		</node>
		<node id="1055627345" x="421741.96863996226" y="5645310.976103842" >
		</node>
		<node id="1055627360" x="421153.20330551773" y="5645079.547054494" >
		</node>
		<node id="1055627420" x="422655.00907886814" y="5645427.074350745" >
		</node>
		<node id="1055627451" x="422656.8675219874" y="5645420.27309626" >
		</node>
		<node id="1055627458" x="421166.6855281491" y="5645052.314426953" >
		</node>
		<node id="1055627496" x="421728.8924061441" y="5645262.924681248" >
		</node>
		<node id="1055627514" x="422436.5098463139" y="5645398.898018938" >
		</node>
		<node id="1055627522" x="422615.6267792778" y="5645464.221605643" >
		</node>
		<node id="1064273494" x="421778.2278307434" y="5642472.000363101" >
		</node>
		<node id="1064273559" x="421745.25870698877" y="5641884.348517829" >
		</node>
		<node id="1064273621" x="420578.41897333454" y="5642296.228902873" >
		</node>
		<node id="1064273626" x="421991.34748246847" y="5642093.867540556" >
		</node>
		<node id="1064273640" x="421684.0442587255" y="5642631.092286563" >
		</node>
		<node id="1064273642" x="421690.9729428633" y="5641969.00800928" >
		</node>
		<node id="1064273672" x="421799.336554166" y="5642194.66904665" >
		</node>
		<node id="1064273674" x="421552.0016536558" y="5643625.670362869" >
		</node>
		<node id="1064273706" x="420616.75494627125" y="5643062.843425169" >
		</node>
		<node id="1064273970" x="421107.8636914077" y="5642333.293530186" >
		</node>
		<node id="1064274005" x="421707.40882375604" y="5642386.715188633" >
		</node>
		<node id="1064274055" x="420582.26991567994" y="5642602.75904871" >
		</node>
		<node id="1064274060" x="421673.1238055529" y="5643532.857855489" >
		</node>
		<node id="1064274062" x="421841.4925725747" y="5641874.700333184" >
		</node>
		<node id="1064274151" x="421791.1407462398" y="5642126.178945322" >
		</node>
		<node id="1064274160" x="421830.297214712" y="5642085.737305754" >
		</node>
		<node id="1064274191" x="421832.96549029776" y="5642019.775031786" >
		</node>
		<node id="1064274194" x="421561.11463631026" y="5643586.081402459" >
		</node>
		<node id="1064274198" x="421795.6363088072" y="5642318.015948826" >
		</node>
		<node id="1064274223" x="421766.82953118044" y="5642558.848728005" >
		</node>
		<node id="1064274230" x="421624.58502682106" y="5642037.456659468" >
		</node>
		<node id="1064274238" x="421660.69649330445" y="5643508.976836114" >
		</node>
		<node id="1064274257" x="421552.4462517255" y="5643474.399355951" >
		</node>
		<node id="1064274276" x="421504.808966679" y="5643511.301522691" >
		</node>
		<node id="1064274291" x="421629.35101813247" y="5641903.9276729785" >
		</node>
		<node id="1064274375" x="421523.9761654647" y="5643592.260283999" >
		</node>
		<node id="1064274389" x="421550.435918255" y="5643571.8951324755" >
		</node>
		<node id="1064274391" x="420980.30729920196" y="5642216.8378022015" >
		</node>
		<node id="1064274395" x="420734.99422757386" y="5643240.416673531" >
		</node>
		<node id="1064274403" x="421620.7449504267" y="5642137.80486047" >
		</node>
		<node id="1064274479" x="421756.14921654644" y="5642640.147377565" >
		</node>
		<node id="1064274498" x="421699.7473039979" y="5642465.410230888" >
		</node>
		<node id="1064274598" x="421953.2457039621" y="5641855.978151233" >
		</node>
		<node id="1064274633" x="421576.21093379764" y="5643606.129085674" >
		</node>
		<node id="1064274640" x="421683.92806801706" y="5641903.2923876485" >
		</node>
		<node id="1064274720" x="421278.7119562516" y="5642186.607079873" >
		</node>
		<node id="1064274768" x="421787.96839156246" y="5642023.956921337" >
		</node>
		<node id="1064274804" x="421841.6127981696" y="5641878.480112974" >
		</node>
		<node id="1064274809" x="421710.75735710864" y="5641980.365544552" >
		</node>
		<node id="1064274826" x="422633.5817693028" y="5641861.167749378" >
		</node>
		<node id="1064274830" x="421751.78872115543" y="5642775.516533138" >
		</node>
		<node id="1064274849" x="420985.4511549934" y="5642351.907483233" >
		</node>
		<node id="1064274886" x="421715.03466835496" y="5642308.432238726" >
		</node>
		<node id="1064274930" x="421728.3691488025" y="5642198.976215654" >
		</node>
		<node id="1064274960" x="421610.7956981426" y="5643549.5826084865" >
		</node>
		<node id="1064274961" x="421846.0021630781" y="5642097.924268588" >
		</node>
		<node id="1064274999" x="421821.73507691734" y="5643463.302060843" >
		</node>
		<node id="1064275003" x="421701.83854493697" y="5641942.773211259" >
		</node>
		<node id="1064275058" x="421205.64398991445" y="5641944.370451391" >
		</node>
		<node id="1064275088" x="421806.38952752325" y="5642138.417156574" >
		</node>
		<node id="1064275134" x="421100.0955181541" y="5642210.7986505" >
		</node>
		<node id="1064275136" x="420987.10581773" y="5642216.445039004" >
		</node>
		<node id="1064275137" x="421788.30322256463" y="5642395.282203287" >
		</node>
		<node id="1064275159" x="421493.2339501494" y="5642059.619168901" >
		</node>
		<node id="1064275161" x="421235.31243710534" y="5642313.916409479" >
		</node>
		<node id="1064275165" x="421216.61625827383" y="5642196.0363585865" >
		</node>
		<node id="1064275198" x="421111.2099802675" y="5641958.985935858" >
		</node>
		<node id="1064275223" x="420633.5079191622" y="5642317.80830117" >
		</node>
		<node id="1064275253" x="421691.5573261948" y="5642550.052614284" >
		</node>
		<node id="1064275254" x="421751.9514588396" y="5642721.092427127" >
		</node>
		<node id="1064360779" x="424245.4776474595" y="5644483.964054092" >
		</node>
		<node id="1064360782" x="424264.6557781531" y="5644502.002092806" >
		</node>
		<node id="1064360849" x="424266.7632173116" y="5644484.665078275" >
		</node>
		<node id="1064360959" x="424294.3782899838" y="5644341.474224502" >
		</node>
		<node id="1110283153" x="415811.0907686608" y="5643692.937755374" >
		</node>
		<node id="1110283883" x="415604.2037510624" y="5643973.235124626" >
		</node>
		<node id="1110283895" x="415862.62064104015" y="5644032.956123002" >
		</node>
		<node id="1110283910" x="415775.21205750224" y="5644254.160392474" >
		</node>
		<node id="1110294499" x="415450.11909537966" y="5643945.514694086" >
		</node>
		<node id="1110294501" x="415516.30011515797" y="5643978.949379129" >
		</node>
		<node id="1110294514" x="415464.19505301904" y="5643999.808684519" >
		</node>
		<node id="1110294516" x="415467.82918922696" y="5643981.341313191" >
		</node>
		<node id="1110294519" x="415514.9227001511" y="5643954.802165405" >
		</node>
		<node id="1136485402" x="415657.35454466124" y="5643979.021366616" >
		</node>
		<node id="1136485408" x="415524.2910730905" y="5644044.109491285" >
		</node>
		<node id="1136485451" x="415749.51548257" y="5644136.643970566" >
		</node>
		<node id="1136485479" x="415636.0004454199" y="5644222.644856063" >
		</node>
		<node id="1136485506" x="415892.885784346" y="5643984.370389705" >
		</node>
		<node id="1136485532" x="415823.71214356093" y="5644168.483985316" >
		</node>
		<node id="1136485563" x="415647.04372207564" y="5644123.139282113" >
		</node>
		<node id="1136485565" x="415667.9949817184" y="5644036.09682092" >
		</node>
		<node id="1136485567" x="415792.0492167207" y="5644027.117106932" >
		</node>
		<node id="1136485568" x="415725.1556924221" y="5644132.957962265" >
		</node>
		<node id="1156433662" x="416884.91962052486" y="5645725.758637428" >
		</node>
		<node id="1156433670" x="417213.34869300004" y="5645883.146254878" >
		</node>
		<node id="1156433672" x="417259.9829239969" y="5645788.859679966" >
		</node>
		<node id="1156433675" x="417332.8839533694" y="5645813.355759453" >
		</node>
		<node id="1156433678" x="417212.05349836976" y="5645773.530954212" >
		</node>
		<node id="1183153564" x="419370.2253691503" y="5645231.791536927" >
		</node>
		<node id="1183153568" x="419251.91340099234" y="5645464.170757993" >
		</node>
		<node id="1183153579" x="419468.80742035905" y="5645357.055052107" >
		</node>
		<node id="1183153584" x="418857.56269919645" y="5646003.647733907" >
		</node>
		<node id="1183153606" x="419412.836623295" y="5645858.305583034" >
		</node>
		<node id="1183153608" x="419057.4910838172" y="5645381.794655101" >
		</node>
		<node id="1183153612" x="419390.13111434225" y="5645203.964685348" >
		</node>
		<node id="1183153640" x="418836.4853505405" y="5646004.7342831595" >
		</node>
		<node id="1183153647" x="419386.9267990632" y="5645224.691306069" >
		</node>
		<node id="1183153654" x="419285.9897128648" y="5645363.892905139" >
		</node>
		<node id="1183153663" x="419254.641986133" y="5645453.083555846" >
		</node>
		<node id="1183153664" x="419247.68403273413" y="5645429.901418593" >
		</node>
		<node id="1183153671" x="418850.7237132308" y="5646000.240138982" >
		</node>
		<node id="1183153679" x="419314.38148905174" y="5645298.650826365" >
		</node>
		<node id="1183153684" x="418838.51520308555" y="5646027.136693969" >
		</node>
		<node id="1183153688" x="419352.83121443127" y="5645214.243970999" >
		</node>
		<node id="1183153690" x="419355.1130225938" y="5645221.371359494" >
		</node>
		<node id="1183153693" x="419255.2485395285" y="5645442.418716136" >
		</node>
		<node id="1183153727" x="418862.06110377616" y="5646010.551117414" >
		</node>
		<node id="1183153730" x="419085.86799682875" y="5645430.045884503" >
		</node>
		<node id="1183153763" x="419065.0116412861" y="5645437.3343694955" >
		</node>
		<node id="1183153776" x="418840.14758917334" y="5645979.339696976" >
		</node>
		<node id="1183153781" x="419110.0108847073" y="5645432.571864267" >
		</node>
		<node id="1183153786" x="419071.06542274304" y="5645429.565247048" >
		</node>
		<node id="1183153812" x="419287.8635557147" y="5645357.457136183" >
		</node>
		<node id="1183153820" x="419078.6433729277" y="5645427.622782889" >
		</node>
		<node id="1183153826" x="419045.2419788935" y="5645366.247639772" >
		</node>
		<node id="1183153838" x="419378.10608830384" y="5645193.296203507" >
		</node>
		<node id="1183153872" x="418832.4885756509" y="5646016.397746263" >
		</node>
		<node id="1183153889" x="419278.25088454067" y="5645362.7343822485" >
		</node>
		<node id="1183153909" x="419356.2478448114" y="5645223.867386529" >
		</node>
		<node id="1183153915" x="419065.2949774846" y="5645446.027772003" >
		</node>
		<node id="1183153933" x="419456.20863653766" y="5645321.647711814" >
		</node>
		<node id="1183153937" x="419357.5582548109" y="5645199.277337704" >
		</node>
		<node id="1183153952" x="418856.2977883681" y="5646027.380857444" >
		</node>
		<node id="1183153967" x="419113.7870269539" y="5645459.351598374" >
		</node>
		<node id="1183153972" x="419232.8593471943" y="5645510.014548332" >
		</node>
		<node id="1183153981" x="419069.70085306035" y="5645469.483124674" >
		</node>
		<node id="1183154041" x="419391.89993139246" y="5645211.989871543" >
		</node>
		<node id="1183155694" x="419090.56273395894" y="5645446.812093142" >
		</node>
		<node id="1183155702" x="419076.1099400859" y="5645454.779112469" >
		</node>
		<node id="1183155730" x="419067.1680777604" y="5645449.45762191" >
		</node>
		<node id="1183155735" x="419091.6289308511" y="5645439.510177616" >
		</node>
		<node id="1183155741" x="419349.0593249824" y="5645350.142075489" >
		</node>
		<node id="1185669905" x="420041.3821573581" y="5644822.705139645" >
		</node>
		<node id="1185669924" x="420016.10463260394" y="5644816.911145463" >
		</node>
		<node id="1185669927" x="419796.8032618837" y="5645234.535856903" >
		</node>
		<node id="1185669943" x="420029.34340668085" y="5644817.485391871" >
		</node>
		<node id="1185669946" x="420066.346322272" y="5644812.743539758" >
		</node>
		<node id="1185669950" x="419665.48913105973" y="5645265.677818576" >
		</node>
		<node id="1185669964" x="420000.2410254885" y="5644817.434090785" >
		</node>
		<node id="1185669982" x="420025.9481034862" y="5644804.624593748" >
		</node>
		<node id="1185669999" x="420035.29231923574" y="5644810.975917355" >
		</node>
		<node id="1185670000" x="420050.2499431862" y="5644808.654094062" >
		</node>
		<node id="1185670004" x="419878.0276009376" y="5645013.498714736" >
		</node>
		<node id="1185670035" x="419579.2209794213" y="5645281.753465778" >
		</node>
		<node id="1185670036" x="420061.73744856624" y="5644809.110851415" >
		</node>
		<node id="1185670041" x="420056.4207557895" y="5644835.653245491" >
		</node>
		<node id="1185670042" x="419740.39095010806" y="5645155.73892908" >
		</node>
		<node id="1185670044" x="419663.86907434394" y="5645322.494461174" >
		</node>
		<node id="1185670049" x="419845.12554772286" y="5645064.325737801" >
		</node>
		<node id="1185670051" x="420063.33671694505" y="5644833.533385172" >
		</node>
		<node id="1185670062" x="419774.5740709831" y="5645165.520096736" >
		</node>
		<node id="1185670065" x="420044.3544578712" y="5644830.011234717" >
		</node>
		<node id="1185670075" x="419813.17810542835" y="5645113.692292337" >
		</node>
		<node id="1185670077" x="420045.3610929759" y="5644811.921675801" >
		</node>
		<node id="1185670082" x="420023.9121278705" y="5644780.598094638" >
		</node>
		<node id="1185680678" x="422139.4279829699" y="5645266.67129899" >
		</node>
		<node id="1185680712" x="422160.21699415264" y="5645224.672280895" >
		</node>
		<node id="1185681995" x="420401.63502294134" y="5644250.225119952" >
		</node>
		<node id="1185682002" x="419738.91612090875" y="5645347.157798887" >
		</node>
		<node id="1195096981" x="416652.39589810517" y="5645262.9648183435" >
		</node>
		<node id="120003274" x="416341.4734316862" y="5643529.657052477" >
		</node>
		<node id="120003289" x="416391.3945677213" y="5643546.325379891" >
		</node>
		<node id="120003347" x="417124.79792660335" y="5643588.1932425955" >
		</node>
		<node id="120028934" x="416178.0529408972" y="5643403.607561425" >
		</node>
		<node id="120028950" x="416153.6669286453" y="5643384.5817227615" >
		</node>
		<node id="120028957" x="416192.0731920776" y="5643389.644398602" >
		</node>
		<node id="120028970" x="416164.0533987238" y="5643367.56290756" >
		</node>
		<node id="120039539" x="416255.456503546" y="5642812.866828825" >
		</node>
		<node id="120039551" x="416267.08937058423" y="5642822.444654191" >
		</node>
		<node id="120039675" x="416292.1974018956" y="5642786.357795731" >
		</node>
		<node id="120039691" x="416280.10202478786" y="5642779.045279486" >
		</node>
		<node id="120043956" x="416202.82955764816" y="5642192.016465498" >
		</node>
		<node id="120043961" x="416175.6451591463" y="5642189.81970084" >
		</node>
		<node id="120043969" x="416165.5294407491" y="5642138.073814095" >
		</node>
		<node id="120043976" x="416186.1468350095" y="5642126.262017416" >
		</node>
		<node id="120056900" x="415767.7395954086" y="5642505.549944425" >
		</node>
		<node id="120056910" x="415766.27244331886" y="5642481.4375686245" >
		</node>
		<node id="120056918" x="415753.3914236403" y="5642474.750753581" >
		</node>
		<node id="120057016" x="415740.6882781087" y="5642477.715563325" >
		</node>
		<node id="120057115" x="415732.4386017891" y="5642488.27156025" >
		</node>
		<node id="120057185" x="415735.3453715789" y="5642506.231942355" >
		</node>
		<node id="120057192" x="415854.3743488059" y="5642391.493057499" >
		</node>
		<node id="120057199" x="415860.45422359154" y="5642403.584855914" >
		</node>
		<node id="120068805" x="415536.2944087774" y="5642623.144089493" >
		</node>
		<node id="120068823" x="415542.1453721855" y="5642656.539215311" >
		</node>
		<node id="120068841" x="415515.28451038984" y="5642662.860680156" >
		</node>
		<node id="120068964" x="415506.45610670623" y="5642629.224903409" >
		</node>
		<node id="120080846" x="415549.8263377687" y="5642728.500286488" >
		</node>
		<node id="120080865" x="416265.0664676783" y="5644121.348788667" >
		</node>
		<node id="120080996" x="415922.8478632753" y="5643948.2583071375" >
		</node>
		<node id="120089593" x="416268.52037804725" y="5644149.844902135" >
		</node>
		<node id="120089910" x="416302.21447909327" y="5644134.129356478" >
		</node>
		<node id="120089917" x="416298.7401891301" y="5644145.263646368" >
		</node>
		<node id="120090006" x="416281.2504630749" y="5644154.444260251" >
		</node>
		<node id="120090101" x="416227.4945057292" y="5644229.300902603" >
		</node>
		<node id="120090113" x="416003.967598851" y="5644219.871729869" >
		</node>
		<node id="120090227" x="415980.32028604846" y="5644215.45001604" >
		</node>
		<node id="120104443" x="415435.3856173635" y="5642684.072678139" >
		</node>
		<node id="1219531341" x="419511.0643540098" y="5646223.744010502" >
		</node>
		<node id="1227860671" x="415715.11363078165" y="5642952.00195084" >
		</node>
		<node id="1227860683" x="415912.11432590825" y="5643022.157408256" >
		</node>
		<node id="1227860709" x="415857.6686028844" y="5643038.501212186" >
		</node>
		<node id="1227860717" x="415654.7156582611" y="5643095.020877733" >
		</node>
		<node id="1227860724" x="415788.10187697073" y="5642740.47498347" >
		</node>
		<node id="1227888552" x="415777.25767538365" y="5644068.689401336" >
		</node>
		<node id="1227904255" x="417270.1582220689" y="5643600.3530624155" >
		</node>
		<node id="1227904257" x="417253.6754313439" y="5643590.060777917" >
		</node>
		<node id="1245201749" x="423174.91752947983" y="5647680.988993783" >
		</node>
		<node id="1245201865" x="423249.09616715414" y="5647621.718834347" >
		</node>
		<node id="1245202004" x="423265.4486059269" y="5647609.7534765685" >
		</node>
		<node id="1245202026" x="423367.7550397081" y="5647642.672947584" >
		</node>
		<node id="1245202307" x="423385.983660884" y="5647140.551815067" >
		</node>
		<node id="1245202434" x="423234.27870197827" y="5647628.278264434" >
		</node>
		<node id="1245202607" x="423726.81505387224" y="5647309.918134926" >
		</node>
		<node id="1245380552" x="424173.43242360296" y="5645006.940702629" >
		</node>
		<node id="1246526398" x="424189.31029203266" y="5644322.578500407" >
		</node>
		<node id="1246526407" x="423805.0844980674" y="5644276.249845055" >
		</node>
		<node id="1246526409" x="424202.1333956076" y="5642233.013523514" >
		</node>
		<node id="1246526414" x="423711.0967163534" y="5643539.469937209" >
		</node>
		<node id="1246526420" x="423555.24861207686" y="5644270.91980754" >
		</node>
		<node id="1246526426" x="423084.16126438737" y="5644233.022276308" >
		</node>
		<node id="1246526467" x="423069.91328856756" y="5644256.824152325" >
		</node>
		<node id="1246526525" x="423828.49316839915" y="5643322.939597169" >
		</node>
		<node id="1246526549" x="423838.82697420137" y="5643294.915422903" >
		</node>
		<node id="1246526605" x="423563.89043722575" y="5644030.250848877" >
		</node>
		<node id="1246526618" x="423074.44151224795" y="5644231.943077652" >
		</node>
		<node id="1252292728" x="419232.7817506391" y="5641918.415058764" >
		</node>
		<node id="1252292734" x="418564.43496729375" y="5642650.727875593" >
		</node>
		<node id="1252292748" x="419245.1859636122" y="5641930.823673813" >
		</node>
		<node id="1269608160" x="420874.9428305741" y="5643687.424006926" >
		</node>
		<node id="1269608162" x="421136.5720502121" y="5643765.765093578" >
		</node>
		<node id="1269608165" x="420877.7692922551" y="5643693.042172384" >
		</node>
		<node id="1269608166" x="421145.86678329285" y="5643734.191793093" >
		</node>
		<node id="1269608172" x="420862.3021507885" y="5643686.615952798" >
		</node>
		<node id="1269608181" x="421057.94328514056" y="5643696.557130339" >
		</node>
		<node id="1269608184" x="420865.3299733731" y="5643701.740700963" >
		</node>
		<node id="135238314" x="419631.6300863252" y="5645308.0124305915" >
		</node>
		<node id="135238657" x="419782.7568010271" y="5645162.66839291" >
		</node>
		<node id="1390139066" x="415867.5942128041" y="5644025.056134451" >
		</node>
		<node id="1390139071" x="416050.738169057" y="5644119.143222603" >
		</node>
		<node id="1390705508" x="420241.5306641997" y="5644856.024467236" >
		</node>
		<node id="1390705510" x="420237.6318226267" y="5644871.122056628" >
		</node>
		<node id="1390705515" x="420438.4358619354" y="5644915.327704975" >
		</node>
		<node id="1390705530" x="420546.4494731481" y="5644923.491487644" >
		</node>
		<node id="1390705533" x="420543.2972979371" y="5644938.310439714" >
		</node>
		<node id="1390705554" x="420888.96277675143" y="5645000.267731149" >
		</node>
		<node id="1390705563" x="421010.66384671413" y="5645026.228255635" >
		</node>
		<node id="1390705564" x="421007.1318991792" y="5645044.789822031" >
		</node>
		<node id="1392917114" x="417532.00945642346" y="5642700.489986434" >
		</node>
		<node id="1392917154" x="417534.65938945767" y="5642720.379505038" >
		</node>
		<node id="1420508699" x="418683.63228355447" y="5646612.211047208" >
		</node>
		<node id="1420509186" x="418381.67240913794" y="5643914.030005385" >
		</node>
		<node id="1429330905" x="415460.0005454054" y="5642776.701561965" >
		</node>
		<node id="1429330953" x="415583.69134823885" y="5642849.330802302" >
		</node>
		<node id="1453872606" x="421264.22142327164" y="5647139.580168223" >
		</node>
		<node id="1453872607" x="421297.2773635538" y="5647149.732942742" >
		</node>
		<node id="1453872629" x="421649.79283174395" y="5647237.136895961" >
		</node>
		<node id="1453872645" x="421385.506246594" y="5647267.825518739" >
		</node>
		<node id="1453872647" x="421424.0091625294" y="5647283.435357957" >
		</node>
		<node id="1453872649" x="421969.0734705962" y="5647308.7820907" >
		</node>
		<node id="1454639530" x="419558.21373721154" y="5643422.843106097" >
		</node>
		<node id="1562895287" x="423932.7114011242" y="5645452.9577030735" >
		</node>
		<node id="1573161511" x="423366.7021005403" y="5645479.706490944" >
		</node>
		<node id="1573161539" x="423733.52514615003" y="5645621.741732699" >
		</node>
		<node id="1573161540" x="423537.7800700927" y="5645643.4905715715" >
		</node>
		<node id="1573161553" x="423895.86808019754" y="5645659.694841463" >
		</node>
		<node id="1573161559" x="423996.16548697" y="5645683.147419793" >
		</node>
		<node id="1573161570" x="423766.7013845217" y="5645697.074107082" >
		</node>
		<node id="1573161593" x="423909.59337627946" y="5645731.376571121" >
		</node>
		<node id="1607070365" x="420905.83800542576" y="5646816.0505138235" >
		</node>
		<node id="1659203759" x="418437.37621381436" y="5643582.9803678375" >
		</node>
		<node id="1659203790" x="418350.8772008861" y="5643697.54735424" >
		</node>
		<node id="1659203804" x="418223.9771215705" y="5643726.319702334" >
		</node>
		<node id="1659203809" x="418265.07836321474" y="5643635.656625968" >
		</node>
		<node id="1659203814" x="418415.1801414751" y="5643675.702389893" >
		</node>
		<node id="1659203822" x="418413.4853948924" y="5643585.881131259" >
		</node>
		<node id="1659203832" x="418322.0490383222" y="5643637.717271148" >
		</node>
		<node id="1659203846" x="418438.56574944523" y="5643652.777867054" >
		</node>
		<node id="1670706966" x="418294.75653075567" y="5643942.860917028" >
		</node>
		<node id="1670706984" x="417911.6938737444" y="5644055.16731439" >
		</node>
		<node id="1678793057" x="419161.01507173036" y="5645956.659677115" >
		</node>
		<node id="1678793058" x="418991.57269810035" y="5646017.889268781" >
		</node>
		<node id="1684715774" x="423018.06797091867" y="5643359.468226202" >
		</node>
		<node id="1684715777" x="416077.18257651746" y="5643467.248383236" >
		</node>
		<node id="1684715798" x="423182.67923190165" y="5643418.721824823" >
		</node>
		<node id="1684715819" x="423194.7945927351" y="5643473.719971297" >
		</node>
		<node id="1691650700" x="417795.66164646525" y="5645362.232345368" >
		</node>
		<node id="1691650714" x="417815.7240293142" y="5645366.974852796" >
		</node>
		<node id="1691661103" x="418085.0896802211" y="5645828.134225274" >
		</node>
		<node id="1691666708" x="417693.23362177727" y="5644925.816608991" >
		</node>
		<node id="1691666710" x="418016.52498170396" y="5645148.68246097" >
		</node>
		<node id="1691666720" x="418047.7712244951" y="5645161.3239369" >
		</node>
		<node id="1691666722" x="417865.8335801006" y="5645074.767946506" >
		</node>
		<node id="1692510043" x="417984.9285210854" y="5645109.930853995" >
		</node>
		<node id="1692510052" x="417997.579571415" y="5645121.776392228" >
		</node>
		<node id="1692510067" x="417993.6624268218" y="5645149.0553833265" >
		</node>
		<node id="1692510071" x="417965.9643362446" y="5645155.077385385" >
		</node>
		<node id="1692510144" x="417710.88885902223" y="5645942.17691376" >
		</node>
		<node id="1692510158" x="417700.1225355624" y="5645954.70519699" >
		</node>
		<node id="1692510178" x="418182.3767725404" y="5646365.453542348" >
		</node>
		<node id="1692510186" x="418364.56799883704" y="5646409.782995824" >
		</node>
		<node id="1693813884" x="418367.5300395644" y="5644437.59135998" >
		</node>
		<node id="1693813924" x="418386.61110225675" y="5644456.132462022" >
		</node>
		<node id="1693813944" x="418344.7249501636" y="5644480.160759517" >
		</node>
		<node id="1693813947" x="418378.30948069866" y="5644481.355705369" >
		</node>
		<node id="1693813964" x="418537.2619599694" y="5644488.8650050545" >
		</node>
		<node id="1693813993" x="418361.2283278917" y="5644487.174914816" >
		</node>
		<node id="1693813997" x="418591.9636950671" y="5644497.837774993" >
		</node>
		<node id="1694545970" x="418836.12705762347" y="5644705.113918345" >
		</node>
		<node id="1694545995" x="419104.8964293005" y="5644714.803355494" >
		</node>
		<node id="1694546006" x="418934.5589714877" y="5644735.784042147" >
		</node>
		<node id="1694546009" x="419040.55524589325" y="5644737.574952777" >
		</node>
		<node id="1694546021" x="418839.1940723984" y="5644747.064603867" >
		</node>